[Format]      =  4.0
[Frequency]   =  0
[Precision]   =  1e-008
[MinAngle]    =  30
[DoSmartMesh] =  1
[Depth]       =  1
[LengthUnits] =  meters
[ProblemType] =  planar
[Coordinates] =  cartesian
[ACSolver]    =  0
[PrevType]    =  0
[PrevSoln]    =  ""
[Comment]     =  "Add comments here."
[PointProps]   = 0
[BdryProps]   = 1
  <BeginBdry>
    <BdryName> = "A=0"
    <BdryType> = 0
    <A_0> = 0
    <A_1> = 0
    <A_2> = 0
    <Phi> = 0
    <c0> = 0
    <c0i> = 0
    <c1> = 0
    <c1i> = 0
    <Mu_ssd> = 0
    <Sigma_ssd> = 0
    <innerangle> = 0
    <outerangle> = 0
  <EndBdry>
[BlockProps]  = 2
  <BeginBlock>
    <BlockName> = "Air"
    <Mu_x> = 1
    <Mu_y> = 1
    <H_c> = 0
    <H_cAngle> = 0
    <J_re> = 0
    <J_im> = 0
    <Sigma> = 0
    <d_lam> = 0
    <Phi_h> = 0
    <Phi_hx> = 0
    <Phi_hy> = 0
    <LamType> = 0
    <LamFill> = 1
    <NStrands> = 0
    <WireD> = 0
    <BHPoints> = 0
  <EndBlock>
  <BeginBlock>
    <BlockName> = "Copper"
    <Mu_x> = 1
    <Mu_y> = 1
    <H_c> = 0
    <H_cAngle> = 0
    <J_re> = 0
    <J_im> = 0
    <Sigma> = 0
    <d_lam> = 0
    <Phi_h> = 0
    <Phi_hx> = 0
    <Phi_hy> = 0
    <LamType> = 58000000
    <LamFill> = 1
    <NStrands> = 0
    <WireD> = 0
    <BHPoints> = 0
  <EndBlock>
[CircuitProps]  = 1
  <BeginCircuit>
    <CircuitName> = "coil"
    <TotalAmps_re> = 10000
    <TotalAmps_im> = 0
    <CircuitType> = 1
  <EndCircuit>
[NumPoints] = 188
11	0	0	0
-11	0	0	0
9	0	0	0
-9	0	0	0
11.5	0	0	0
-11.5	0	0	0
8.5	0	0	0
-8.5	0	0	0
50	0	0	0
49.969541350954785	1.7449748351250485	0	0
49.878202512991209	3.4878236872062649	0	0
49.726094768413667	5.2264231633826732	0	0
49.513403437078516	6.9586550480032718	0	0
49.240387650610401	8.6824088833465165	0	0
48.907380036690284	10.395584540887967	0	0
48.514786313799824	12.096094779983387	0	0
48.063084796915945	13.781867790849958	0	0
47.552825814757675	15.450849718747369	0	0
46.984631039295422	17.101007166283434	0	0
46.359192728339373	18.730329670795602	0	0
45.67727288213004	20.336832153790009	0	0
44.939702314958353	21.918557339453869	0	0
44.147379642946348	23.473578139294542	0	0
43.301270189221938	24.999999999999996	0	0
42.402404807821299	26.495963211660246	0	0
41.45187862775208	27.959645173537346	0	0
40.450849718747371	29.389262614623657	0	0
39.400537680336093	30.783073766282914	0	0
38.302222155948904	32.139380484326963	0	0
37.157241273869715	33.456530317942914	0	0
35.966990016932563	34.732918522949859	0	0
34.732918522949859	35.966990016932556	0	0
33.456530317942914	37.157241273869715	0	0
32.139380484326971	38.302222155948904	0	0
30.783073766282914	39.4005376803361	0	0
29.389262614623657	40.450849718747371	0	0
27.959645173537339	41.451878627752087	0	0
26.495963211660246	42.402404807821299	0	0
25.000000000000007	43.301270189221931	0	0
23.473578139294542	44.147379642946341	0	0
21.918557339453873	44.939702314958353	0	0
20.336832153790009	45.67727288213004	0	0
18.730329670795598	46.359192728339373	0	0
17.101007166283441	46.984631039295415	0	0
15.450849718747373	47.552825814757675	0	0
13.781867790849958	48.063084796915945	0	0
12.096094779983384	48.514786313799824	0	0
10.395584540887972	48.907380036690277	0	0
8.6824088833465201	49.240387650610401	0	0
6.9586550480032736	49.513403437078516	0	0
5.2264231633826732	49.726094768413667	0	0
3.4878236872062618	49.878202512991209	0	0
1.744974835125054	49.969541350954785	0	0
3.061616997868383e-015	50	0	0
-1.7449748351250478	49.969541350954785	0	0
-3.4878236872062667	49.878202512991209	0	0
-5.2264231633826777	49.726094768413667	0	0
-6.9586550480032674	49.513403437078516	0	0
-8.6824088833465147	49.240387650610401	0	0
-10.395584540887967	48.907380036690284	0	0
-12.096094779983389	48.514786313799824	0	0
-13.781867790849953	48.063084796915945	0	0
-15.450849718747367	47.552825814757682	0	0
-17.101007166283434	46.984631039295422	0	0
-18.730329670795605	46.359192728339373	0	0
-20.336832153790013	45.67727288213004	0	0
-21.918557339453876	44.939702314958346	0	0
-23.473578139294546	44.147379642946341	0	0
-24.999999999999989	43.301270189221938	0	0
-26.495963211660239	42.402404807821306	0	0
-27.959645173537336	41.451878627752087	0	0
-29.38926261462365	40.450849718747371	0	0
-30.783073766282914	39.4005376803361	0	0
-32.139380484326971	38.302222155948904	0	0
-33.456530317942914	37.157241273869715	0	0
-34.732918522949866	35.966990016932556	0	0
-35.966990016932563	34.732918522949859	0	0
-37.157241273869701	33.456530317942921	0	0
-38.302222155948897	32.139380484326971	0	0
-39.400537680336093	30.783073766282921	0	0
-40.450849718747364	29.389262614623661	0	0
-41.45187862775208	27.959645173537346	0	0
-42.402404807821299	26.495963211660246	0	0
-43.301270189221938	24.999999999999996	0	0
-44.147379642946348	23.473578139294535	0	0
-44.939702314958353	21.918557339453866	0	0
-45.67727288213004	20.33683215379002	0	0
-46.359192728339366	18.730329670795612	0	0
-46.984631039295415	17.101007166283445	0	0
-47.552825814757675	15.450849718747376	0	0
-48.063084796915945	13.781867790849962	0	0
-48.514786313799824	12.096094779983387	0	0
-48.907380036690284	10.395584540887965	0	0
-49.240387650610401	8.682408883346513	0	0
-49.513403437078516	6.9586550480032665	0	0
-49.726094768413667	5.2264231633826865	0	0
-49.878202512991209	3.4878236872062764	0	0
-49.969541350954785	1.7449748351250571	0	0
-50	6.1232339957367661e-015	0	0
-49.969541350954785	-1.7449748351250449	0	0
-49.878202512991209	-3.4878236872062636	0	0
-49.726094768413667	-5.226423163382675	0	0
-49.513403437078516	-6.9586550480032763	0	0
-49.240387650610401	-8.6824088833465236	0	0
-48.907380036690277	-10.395584540887976	0	0
-48.514786313799824	-12.096094779983375	0	0
-48.063084796915945	-13.781867790849949	0	0
-47.552825814757682	-15.450849718747364	0	0
-46.984631039295422	-17.101007166283434	0	0
-46.359192728339373	-18.730329670795602	0	0
-45.67727288213004	-20.336832153790009	0	0
-44.939702314958346	-21.918557339453873	0	0
-44.147379642946341	-23.473578139294542	0	0
-43.301270189221931	-25.000000000000007	0	0
-42.402404807821306	-26.495963211660239	0	0
-41.451878627752095	-27.959645173537336	0	0
-40.450849718747378	-29.38926261462365	0	0
-39.4005376803361	-30.783073766282911	0	0
-38.302222155948904	-32.139380484326963	0	0
-37.157241273869715	-33.456530317942914	0	0
-35.966990016932556	-34.732918522949866	0	0
-34.732918522949859	-35.966990016932563	0	0
-33.456530317942907	-37.157241273869715	0	0
-32.139380484326971	-38.302222155948897	0	0
-30.783073766282904	-39.400537680336107	0	0
-29.389262614623661	-40.450849718747364	0	0
-27.959645173537329	-41.451878627752095	0	0
-26.49596321166025	-42.402404807821299	0	0
-25.000000000000021	-43.301270189221917	0	0
-23.473578139294538	-44.147379642946348	0	0
-21.918557339453887	-44.939702314958339	0	0
-20.336832153790006	-45.677272882130048	0	0
-18.730329670795616	-46.359192728339366	0	0
-17.101007166283427	-46.984631039295422	0	0
-15.450849718747378	-47.552825814757675	0	0
-13.781867790849944	-48.063084796915952	0	0
-12.096094779983389	-48.514786313799824	0	0
-10.39558454088799	-48.907380036690277	0	0
-8.6824088833465165	-49.240387650610401	0	0
-6.9586550480032914	-49.513403437078516	0	0
-5.2264231633826679	-49.726094768413667	0	0
-3.4878236872062791	-49.878202512991209	0	0
-1.744974835125038	-49.969541350954785	0	0
-9.1848509936051487e-015	-50	0	0
1.744974835125064	-49.969541350954785	0	0
3.4878236872062609	-49.878202512991216	0	0
5.2264231633826492	-49.726094768413667	0	0
6.9586550480032736	-49.513403437078516	0	0
8.6824088833464987	-49.240387650610408	0	0
10.395584540887972	-48.907380036690277	0	0
12.096094779983373	-48.514786313799831	0	0
13.781867790849969	-48.063084796915938	0	0
15.450849718747362	-47.552825814757682	0	0
17.101007166283448	-46.984631039295415	0	0
18.730329670795598	-46.359192728339373	0	0
20.336832153789988	-45.677272882130055	0	0
21.918557339453869	-44.939702314958353	0	0
23.473578139294521	-44.147379642946355	0	0
25.000000000000007	-43.301270189221931	0	0
26.495963211660232	-42.402404807821306	0	0
27.95964517353735	-41.45187862775208	0	0
29.389262614623647	-40.450849718747378	0	0
30.783073766282925	-39.400537680336086	0	0
32.139380484326963	-38.302222155948904	0	0
33.456530317942892	-37.15724127386973	0	0
34.732918522949859	-35.966990016932563	0	0
35.966990016932542	-34.73291852294988	0	0
37.157241273869715	-33.456530317942907	0	0
38.30222215594889	-32.139380484326978	0	0
39.4005376803361	-30.783073766282911	0	0
40.450849718747364	-29.389262614623668	0	0
41.451878627752095	-27.959645173537329	0	0
42.402404807821299	-26.49596321166025	0	0
43.301270189221917	-25.000000000000021	0	0
44.147379642946341	-23.473578139294542	0	0
44.939702314958339	-21.918557339453891	0	0
45.677272882130048	-20.336832153790006	0	0
46.359192728339366	-18.730329670795616	0	0
46.984631039295422	-17.101007166283431	0	0
47.552825814757675	-15.450849718747381	0	0
48.063084796915945	-13.781867790849947	0	0
48.514786313799824	-12.096094779983394	0	0
48.907380036690277	-10.395584540887993	0	0
49.240387650610401	-8.6824088833465201	0	0
49.513403437078516	-6.958655048003294	0	0
49.726094768413667	-5.2264231633826705	0	0
49.878202512991209	-3.4878236872062818	0	0
49.969541350954785	-1.7449748351250411	0	0
[NumSegments] = 0
[NumArcSegments] = 188
0	1	180	1	0	0	0	1
2	3	180	1	0	0	0	1
4	5	180	1	0	0	0	1
6	7	180	1	0	0	0	1
1	0	180	1	0	0	0	1
3	2	180	1	0	0	0	1
5	4	180	1	0	0	0	1
7	6	180	1	0	0	0	1
8	9	2	2	1	0	0	2
9	10	2	2	1	0	0	2
10	11	2	2	1	0	0	2
11	12	2	2	1	0	0	2
12	13	2	2	1	0	0	2
13	14	2	2	1	0	0	2
14	15	2	2	1	0	0	2
15	16	2	2	1	0	0	2
16	17	2	2	1	0	0	2
17	18	2	2	1	0	0	2
18	19	2	2	1	0	0	2
19	20	2	2	1	0	0	2
20	21	2	2	1	0	0	2
21	22	2	2	1	0	0	2
22	23	2	2	1	0	0	2
23	24	2	2	1	0	0	2
24	25	2	2	1	0	0	2
25	26	2	2	1	0	0	2
26	27	2	2	1	0	0	2
27	28	2	2	1	0	0	2
28	29	2	2	1	0	0	2
29	30	2	2	1	0	0	2
30	31	2	2	1	0	0	2
31	32	2	2	1	0	0	2
32	33	2	2	1	0	0	2
33	34	2	2	1	0	0	2
34	35	2	2	1	0	0	2
35	36	2	2	1	0	0	2
36	37	2	2	1	0	0	2
37	38	2	2	1	0	0	2
38	39	2	2	1	0	0	2
39	40	2	2	1	0	0	2
40	41	2	2	1	0	0	2
41	42	2	2	1	0	0	2
42	43	2	2	1	0	0	2
43	44	2	2	1	0	0	2
44	45	2	2	1	0	0	2
45	46	2	2	1	0	0	2
46	47	2	2	1	0	0	2
47	48	2	2	1	0	0	2
48	49	2	2	1	0	0	2
49	50	2	2	1	0	0	2
50	51	2	2	1	0	0	2
51	52	2	2	1	0	0	2
52	53	2	2	1	0	0	2
53	54	2	2	1	0	0	2
54	55	2	2	1	0	0	2
55	56	2	2	1	0	0	2
56	57	2	2	1	0	0	2
57	58	2	2	1	0	0	2
58	59	2	2	1	0	0	2
59	60	2	2	1	0	0	2
60	61	2	2	1	0	0	2
61	62	2	2	1	0	0	2
62	63	2	2	1	0	0	2
63	64	2	2	1	0	0	2
64	65	2	2	1	0	0	2
65	66	2	2	1	0	0	2
66	67	2	2	1	0	0	2
67	68	2	2	1	0	0	2
68	69	2	2	1	0	0	2
69	70	2	2	1	0	0	2
70	71	2	2	1	0	0	2
71	72	2	2	1	0	0	2
72	73	2	2	1	0	0	2
73	74	2	2	1	0	0	2
74	75	2	2	1	0	0	2
75	76	2	2	1	0	0	2
76	77	2	2	1	0	0	2
77	78	2	2	1	0	0	2
78	79	2	2	1	0	0	2
79	80	2	2	1	0	0	2
80	81	2	2	1	0	0	2
81	82	2	2	1	0	0	2
82	83	2	2	1	0	0	2
83	84	2	2	1	0	0	2
84	85	2	2	1	0	0	2
85	86	2	2	1	0	0	2
86	87	2	2	1	0	0	2
87	88	2	2	1	0	0	2
88	89	2	2	1	0	0	2
89	90	2	2	1	0	0	2
90	91	2	2	1	0	0	2
91	92	2	2	1	0	0	2
92	93	2	2	1	0	0	2
93	94	2	2	1	0	0	2
94	95	2	2	1	0	0	2
95	96	2	2	1	0	0	2
96	97	2	2	1	0	0	2
97	98	2	2	1	0	0	2
98	99	2	2	1	0	0	2
99	100	2	2	1	0	0	2
100	101	2	2	1	0	0	2
101	102	2	2	1	0	0	2
102	103	2	2	1	0	0	2
103	104	2	2	1	0	0	2
104	105	2	2	1	0	0	2
105	106	2	2	1	0	0	2
106	107	2	2	1	0	0	2
107	108	2	2	1	0	0	2
108	109	2	2	1	0	0	2
109	110	2	2	1	0	0	2
110	111	2	2	1	0	0	2
111	112	2	2	1	0	0	2
112	113	2	2	1	0	0	2
113	114	2	2	1	0	0	2
114	115	2	2	1	0	0	2
115	116	2	2	1	0	0	2
116	117	2	2	1	0	0	2
117	118	2	2	1	0	0	2
118	119	2	2	1	0	0	2
119	120	2	2	1	0	0	2
120	121	2	2	1	0	0	2
121	122	2	2	1	0	0	2
122	123	2	2	1	0	0	2
123	124	2	2	1	0	0	2
124	125	2	2	1	0	0	2
125	126	2	2	1	0	0	2
126	127	2	2	1	0	0	2
127	128	2	2	1	0	0	2
128	129	2	2	1	0	0	2
129	130	2	2	1	0	0	2
130	131	2	2	1	0	0	2
131	132	2	2	1	0	0	2
132	133	2	2	1	0	0	2
133	134	2	2	1	0	0	2
134	135	2	2	1	0	0	2
135	136	2	2	1	0	0	2
136	137	2	2	1	0	0	2
137	138	2	2	1	0	0	2
138	139	2	2	1	0	0	2
139	140	2	2	1	0	0	2
140	141	2	2	1	0	0	2
141	142	2	2	1	0	0	2
142	143	2	2	1	0	0	2
143	144	2	2	1	0	0	2
144	145	2	2	1	0	0	2
145	146	2	2	1	0	0	2
146	147	2	2	1	0	0	2
147	148	2	2	1	0	0	2
148	149	2	2	1	0	0	2
149	150	2	2	1	0	0	2
150	151	2	2	1	0	0	2
151	152	2	2	1	0	0	2
152	153	2	2	1	0	0	2
153	154	2	2	1	0	0	2
154	155	2	2	1	0	0	2
155	156	2	2	1	0	0	2
156	157	2	2	1	0	0	2
157	158	2	2	1	0	0	2
158	159	2	2	1	0	0	2
159	160	2	2	1	0	0	2
160	161	2	2	1	0	0	2
161	162	2	2	1	0	0	2
162	163	2	2	1	0	0	2
163	164	2	2	1	0	0	2
164	165	2	2	1	0	0	2
165	166	2	2	1	0	0	2
166	167	2	2	1	0	0	2
167	168	2	2	1	0	0	2
168	169	2	2	1	0	0	2
169	170	2	2	1	0	0	2
170	171	2	2	1	0	0	2
171	172	2	2	1	0	0	2
172	173	2	2	1	0	0	2
173	174	2	2	1	0	0	2
174	175	2	2	1	0	0	2
175	176	2	2	1	0	0	2
176	177	2	2	1	0	0	2
177	178	2	2	1	0	0	2
178	179	2	2	1	0	0	2
179	180	2	2	1	0	0	2
180	181	2	2	1	0	0	2
181	182	2	2	1	0	0	2
182	183	2	2	1	0	0	2
183	184	2	2	1	0	0	2
184	185	2	2	1	0	0	2
185	186	2	2	1	0	0	2
186	187	2	2	1	0	0	2
187	8	2	2	1	0	0	2
[NumHoles] = 0
[NumBlockLabels] = 5
11.25	0	2	-1	1	0	0	1	0
8.75	0	2	-1	1	0	0	1	0
10	0	1	-1	0	0	0	1	0
20	0	1	-1	0	0	0	1	0
0	0	1	-1	0	0	0	1	0
